5
c3h2 geometry
C          0.0000000000        0.0000000000       -0.8887390447
C          0.0000000000       -0.6627588746        0.3682596138
C          0.0000000000        0.6627588746        0.3682596138
H          0.0000000000       -1.5952720351        0.9069548903
H          0.0000000000        1.5952720351        0.9069548903
